4XCP_PLM_A_201
  RCSB PDB12061716123D
Coordinates from PDB:4XCP:A:201 Model:1 without hydrogens
 18 17  0  0  0  0            999 V2000
   36.5590   27.5960   10.5670   C 0  0  0  0  0  0  0  0  0  0  0  0
   36.4360   28.1650   11.7340   O 0  0  0  0  0  0  0  0  0  0  0  0
   37.4890   27.8280    9.8090   O 0  0  0  0  0  0  0  0  0  0  0  0
   35.4620   26.6220   10.2480   C 0  0  0  0  0  0  0  0  0  0  0  0
   34.3470   26.4880   11.2820   C 0  0  0  0  0  0  0  0  0  0  0  0
   33.2720   27.5500   11.1710   C 0  0  0  0  0  0  0  0  0  0  0  0
   32.1700   27.4310   12.2010   C 0  0  0  0  0  0  0  0  0  0  0  0
   30.9870   28.3610   11.9770   C 0  0  0  0  0  0  0  0  0  0  0  0
   30.7570   29.3990   13.0660   C 0  0  0  0  0  0  0  0  0  0  0  0
   31.7390   30.5370   13.0210   C 0  0  0  0  0  0  0  0  0  0  0  0
   31.6130   31.5240   14.1290   C 0  0  0  0  0  0  0  0  0  0  0  0
   32.9290   31.9420   14.7220   C 0  0  0  0  0  0  0  0  0  0  0  0
   33.5360   33.2310   14.2170   C 0  0  0  0  0  0  0  0  0  0  0  0
   34.8010   33.6690   14.9760   C 0  0  0  0  0  0  0  0  0  0  0  0
   36.1000   32.9040   14.6520   C 0  0  0  0  0  0  0  0  0  0  0  0
   36.1990   31.4890   15.2270   C 0  0  0  0  0  0  0  0  0  0  0  0
   37.5390   30.8220   15.0570   C 0  0  0  0  0  0  0  0  0  0  0  0
   37.7640   30.1310   13.7280   C 0  0  0  0  0  0  0  0  0  0  0  0
  1  2  1  0  0  0  0
  1  3  2  0  0  0  0
  1  4  1  0  0  0  0
  4  5  1  0  0  0  0
  5  6  1  0  0  0  0
  6  7  1  0  0  0  0
  7  8  1  0  0  0  0
  8  9  1  0  0  0  0
  9 10  1  0  0  0  0
 10 11  1  0  0  0  0
 11 12  1  0  0  0  0
 12 13  1  0  0  0  0
 13 14  1  0  0  0  0
 14 15  1  0  0  0  0
 15 16  1  0  0  0  0
 16 17  1  0  0  0  0
 17 18  1  0  0  0  0
A    1
C1
A    2
O1
A    3
O2
A    4
C2
A    5
C3
A    6
C4
A    7
C5
A    8
C6
A    9
C7
A   10
C8
A   11
C9
A   12
CA
A   13
CB
A   14
CC
A   15
CD
A   16
CE
A   17
CF
A   18
CG
M  END
>  <InstanceId>
4XCP_PLM_A_201

>  <ChemCompId>
PLM

>  <PdbId>
4XCP

>  <ChainId>
A

>  <ResidueNumber>
201

>  <InsertionCode>


>  <Model>
1

>  <AltIds>


>  <MissingHeavyAtoms>
0

>  <ObservedFormula>
C16 O2

>  <Name>
PALMITIC ACID

>  <SystematicName>
hexadecanoic acid

>  <Synonyms>


>  <Type>
NON-POLYMER

>  <Formula>
C16 H32 O2

>  <MolecularWeight>
256.424

>  <ModifiedDate>
2011-06-04

>  <Parent>


>  <OneLetterCode>


>  <SubcomponentList>


>  <AmbiguousFlag>
N

>  <InChI>
InChI=1S/C16H32O2/c1-2-3-4-5-6-7-8-9-10-11-12-13-14-15-16(17)18/h2-15H2,1H3,(H,17,18)

>  <InChIKey>
IPCSVZSSVZVIGE-UHFFFAOYSA-N

>  <SMILES>
CCCCCCCCCCCCCCCC(=O)O

$$$$
4XCP_PLM_A_202
  RCSB PDB12061716123D
Coordinates from PDB:4XCP:A:202 Model:1 without hydrogens
 18 17  0  0  0  0            999 V2000
   38.6700   43.2080    7.2110   C 0  0  0  0  0  0  0  0  0  0  0  0
   38.1000   43.9160    8.0090   O 0  0  0  0  0  0  0  0  0  0  0  0
   38.1570   42.8730    6.0580   O 0  0  0  0  0  0  0  0  0  0  0  0
   40.0350   42.6330    7.4550   C 0  0  0  0  0  0  0  0  0  0  0  0
   40.4580   42.6040    8.9210   C 0  0  0  0  0  0  0  0  0  0  0  0
   41.7150   41.7910    9.1610   C 0  0  0  0  0  0  0  0  0  0  0  0
   41.4770   40.2940    9.3010   C 0  0  0  0  0  0  0  0  0  0  0  0
   40.9100   39.8700   10.6480   C 0  0  0  0  0  0  0  0  0  0  0  0
   41.1120   38.3950   10.9600   C 0  0  0  0  0  0  0  0  0  0  0  0
   40.4330   37.9110   12.2320   C 0  0  0  0  0  0  0  0  0  0  0  0
   39.5950   36.6580   12.0580   C 0  0  0  0  0  0  0  0  0  0  0  0
   38.8250   36.2530   13.3040   C 0  0  0  0  0  0  0  0  0  0  0  0
   37.6440   37.1590   13.6520   C 0  0  0  0  0  0  0  0  0  0  0  0
   36.4720   37.0880   12.6840   C 0  0  0  0  0  0  0  0  0  0  0  0
   35.2070   37.7030   13.2460   C 0  0  0  0  0  0  0  0  0  0  0  0
   33.9910   37.6600   12.3200   C 0  0  0  0  0  0  0  0  0  0  0  0
   32.7030   37.1460   12.9740   C 0  0  0  0  0  0  0  0  0  0  0  0
   31.5430   38.1100   12.9000   C 0  0  0  0  0  0  0  0  0  0  0  0
  1  2  1  0  0  0  0
  1  3  2  0  0  0  0
  1  4  1  0  0  0  0
  4  5  1  0  0  0  0
  5  6  1  0  0  0  0
  6  7  1  0  0  0  0
  7  8  1  0  0  0  0
  8  9  1  0  0  0  0
  9 10  1  0  0  0  0
 10 11  1  0  0  0  0
 11 12  1  0  0  0  0
 12 13  1  0  0  0  0
 13 14  1  0  0  0  0
 14 15  1  0  0  0  0
 15 16  1  0  0  0  0
 16 17  1  0  0  0  0
 17 18  1  0  0  0  0
A    1
C1
A    2
O1
A    3
O2
A    4
C2
A    5
C3
A    6
C4
A    7
C5
A    8
C6
A    9
C7
A   10
C8
A   11
C9
A   12
CA
A   13
CB
A   14
CC
A   15
CD
A   16
CE
A   17
CF
A   18
CG
M  END
>  <InstanceId>
4XCP_PLM_A_202

>  <ChemCompId>
PLM

>  <PdbId>
4XCP

>  <ChainId>
A

>  <ResidueNumber>
202

>  <InsertionCode>


>  <Model>
1

>  <AltIds>


>  <MissingHeavyAtoms>
0

>  <ObservedFormula>
C16 O2

>  <Name>
PALMITIC ACID

>  <SystematicName>
hexadecanoic acid

>  <Synonyms>


>  <Type>
NON-POLYMER

>  <Formula>
C16 H32 O2

>  <MolecularWeight>
256.424

>  <ModifiedDate>
2011-06-04

>  <Parent>


>  <OneLetterCode>


>  <SubcomponentList>


>  <AmbiguousFlag>
N

>  <InChI>
InChI=1S/C16H32O2/c1-2-3-4-5-6-7-8-9-10-11-12-13-14-15-16(17)18/h2-15H2,1H3,(H,17,18)

>  <InChIKey>
IPCSVZSSVZVIGE-UHFFFAOYSA-N

>  <SMILES>
CCCCCCCCCCCCCCCC(=O)O

$$$$
