@<TRIPOS>MOLECULE
PLM
   50    49     1     0     0
SMALL
bcc


@<TRIPOS>ATOM
      1 C1           0.1420     0.0010    -8.1900 c          1 PLM       0.634100
      2 O1          -0.4490    -0.0040    -9.3950 oh         1 PLM      -0.614100
      3 O2           1.3470     0.0140    -8.1090 o          1 PLM      -0.550000
      4 C2          -0.6970    -0.0070    -6.9390 c3         1 PLM      -0.126400
      5 C3           0.2150     0.0020    -5.7110 c3         1 PLM      -0.079400
      6 C4          -0.6360    -0.0070    -4.4410 c3         1 PLM      -0.079400
      7 C5           0.2760     0.0030    -3.2140 c3         1 PLM      -0.078400
      8 C6          -0.5760    -0.0060    -1.9430 c3         1 PLM      -0.079400
      9 C7           0.3370     0.0030    -0.7160 c3         1 PLM      -0.079400
     10 C8          -0.5150    -0.0050     0.5530 c3         1 PLM      -0.078400
     11 C9           0.3980     0.0040     1.7810 c3         1 PLM      -0.079400
     12 CA          -0.4540    -0.0050     3.0510 c3         1 PLM      -0.079400
     13 CB           0.4590     0.0050     4.2790 c3         1 PLM      -0.079400
     14 CC          -0.3930    -0.0040     5.5490 c3         1 PLM      -0.078400
     15 CD           0.5200     0.0050     6.7760 c3         1 PLM      -0.079400
     16 CE          -0.3320    -0.0030     8.0470 c3         1 PLM      -0.079400
     17 CF           0.5800     0.0060     9.2740 c3         1 PLM      -0.080400
     18 CG          -0.2710    -0.0030    10.5440 c3         1 PLM      -0.092100
     19 H            0.0890     0.0010   -10.1980 ho         1 PLM       0.444000
     20 H21         -1.3170    -0.9040    -6.9230 hc         1 PLM       0.080700
     21 H22         -1.3360     0.8750    -6.9230 hc         1 PLM       0.080700
     22 H31          0.8350     0.8990    -5.7270 hc         1 PLM       0.058700
     23 H32          0.8540    -0.8800    -5.7270 hc         1 PLM       0.058700
     24 H41         -1.2560    -0.9030    -4.4260 hc         1 PLM       0.040700
     25 H42         -1.2750     0.8760    -4.4260 hc         1 PLM       0.040700
     26 H51          0.8960     0.8990    -3.2290 hc         1 PLM       0.042700
     27 H52          0.9150    -0.8800    -3.2290 hc         1 PLM       0.042700
     28 H61         -1.1950    -0.9030    -1.9280 hc         1 PLM       0.039700
     29 H62         -1.2140     0.8760    -1.9280 hc         1 PLM       0.039700
     30 H71          0.9560     0.9000    -0.7310 hc         1 PLM       0.040700
     31 H72          0.9760    -0.8790    -0.7310 hc         1 PLM       0.040700
     32 H81         -1.1340    -0.9020     0.5690 hc         1 PLM       0.039700
     33 H82         -1.1540     0.8770     0.5690 hc         1 PLM       0.039700
     34 H91          1.0170     0.9010     1.7660 hc         1 PLM       0.039700
     35 H92          1.0370    -0.8780     1.7660 hc         1 PLM       0.039700
     36 HA1         -1.0730    -0.9010     3.0670 hc         1 PLM       0.039700
     37 HA2         -1.0930     0.8780     3.0670 hc         1 PLM       0.039700
     38 HB1          1.0780     0.9010     4.2630 hc         1 PLM       0.039700
     39 HB2          1.0980    -0.8780     4.2630 hc         1 PLM       0.039700
     40 HC1         -1.0120    -0.9010     5.5640 hc         1 PLM       0.039700
     41 HC2         -1.0320     0.8780     5.5640 hc         1 PLM       0.039700
     42 HD1          1.1390     0.9020     6.7610 hc         1 PLM       0.039700
     43 HD2          1.1580    -0.8770     6.7610 hc         1 PLM       0.039700
     44 HE1         -0.9520    -0.9000     8.0620 hc         1 PLM       0.039700
     45 HE2         -0.9710     0.8790     8.0620 hc         1 PLM       0.039700
     46 HF1          1.2000     0.9030     9.2590 hc         1 PLM       0.038700
     47 HF2          1.2190    -0.8760     9.2590 hc         1 PLM       0.038700
     48 HG1          0.3790     0.0040    11.4190 hc         1 PLM       0.032700
     49 HG2         -0.9100     0.8800    10.5600 hc         1 PLM       0.032700
     50 HG3         -0.8910    -0.8990    10.5600 hc         1 PLM       0.032700
@<TRIPOS>BOND
     1     1     2 1   
     2     1     3 2   
     3     1     4 1   
     4     2    19 1   
     5     4     5 1   
     6     4    20 1   
     7     4    21 1   
     8     5     6 1   
     9     5    22 1   
    10     5    23 1   
    11     6     7 1   
    12     6    24 1   
    13     6    25 1   
    14     7     8 1   
    15     7    26 1   
    16     7    27 1   
    17     8     9 1   
    18     8    28 1   
    19     8    29 1   
    20     9    10 1   
    21     9    30 1   
    22     9    31 1   
    23    10    11 1   
    24    10    32 1   
    25    10    33 1   
    26    11    12 1   
    27    11    34 1   
    28    11    35 1   
    29    12    13 1   
    30    12    36 1   
    31    12    37 1   
    32    13    14 1   
    33    13    38 1   
    34    13    39 1   
    35    14    15 1   
    36    14    40 1   
    37    14    41 1   
    38    15    16 1   
    39    15    42 1   
    40    15    43 1   
    41    16    17 1   
    42    16    44 1   
    43    16    45 1   
    44    17    18 1   
    45    17    46 1   
    46    17    47 1   
    47    18    48 1   
    48    18    49 1   
    49    18    50 1   
@<TRIPOS>SUBSTRUCTURE
     1 PLM         1 TEMP              0 ****  ****    0 ROOT
